@<TRIPOS>MOLECULE
MOL
   21    22     1     0     0
SMALL
gas


@<TRIPOS>ATOM
      1 O           84.8970    66.0140    -7.9290 O.co2      1 MOL      -0.549805
      2 O1          84.4540    67.1790    -9.8260 O.co2      1 MOL      -0.549805
      3 N           80.9290    69.7840    -9.7140 N.pl3      1 MOL      -0.320282
      4 C           80.9480    67.5590    -9.8790 C.ar       1 MOL       0.000558
      5 C1          81.8900    67.9600    -8.8910 C.2        1 MOL      -0.019398
      6 C2          80.3590    68.7220   -10.3800 C.ar       1 MOL       0.037446
      7 C3          81.8550    69.3330    -8.8120 C.2        1 MOL      -0.002971
      8 C4          82.7540    67.0710    -8.0870 C.3        1 MOL       0.014045
      9 C5          80.5380    66.3140   -10.3980 C.ar       1 MOL      -0.052761
     10 C6          79.3780    68.7030   -11.3770 C.ar       1 MOL      -0.040198
     11 C7          79.5580    66.2800   -11.3960 C.ar       1 MOL      -0.061524
     12 C8          78.9880    67.4570   -11.8760 C.ar       1 MOL      -0.060359
     13 C9          84.1040    66.7800    -8.7240 C.2        1 MOL       0.045843
     14 H           80.7040    70.7300    -9.8640 H          1 MOL       0.152223
     15 H1          82.4270    69.9190    -8.1840 H          1 MOL       0.079276
     16 H2          82.2410    66.1430    -7.9440 H          1 MOL       0.037910
     17 H3          82.9490    67.5790    -7.1660 H          1 MOL       0.037910
     18 H4          80.9560    65.4390   -10.0460 H          1 MOL       0.062984
     19 H5          78.9570    69.5770   -11.7310 H          1 MOL       0.064278
     20 H6          79.2530    65.3720   -11.7800 H          1 MOL       0.062293
     21 H7          78.2660    67.4090   -12.6130 H          1 MOL       0.062339
@<TRIPOS>BOND
     1     1    13 1   
     2     2    13 1   
     3     3     6 1   
     4     3     7 1   
     5     3    14 1   
     6     4     5 1   
     7     4     6 ar  
     8     4     9 ar  
     9     5     7 2   
    10     5     8 1   
    11     6    10 ar  
    12     7    15 1   
    13     8    13 1   
    14     8    16 1   
    15     8    17 1   
    16     9    11 ar  
    17     9    18 1   
    18    10    12 ar  
    19    10    19 1   
    20    11    12 ar  
    21    11    20 1   
    22    12    21 1   
@<TRIPOS>SUBSTRUCTURE
     1 MOL         1 TEMP              0 ****  ****    0 ROOT
