@<TRIPOS>MOLECULE
    MOL
   21    22     0     0     0
SMALL
USER_CHARGES

@<TRIPOS>ATOM
      1 O          85.2200   68.3300   -7.5300 O.co2    1 MOL1      -0.5498
      2 O1         84.3700   69.8300   -9.0100 O.co2    1 MOL1      -0.5498
      3 N          80.2600   70.0400   -9.7100 N.pl3    1 MOL1      -0.3203
      4 C          81.0400   67.9600   -9.8800 C.ar     1 MOL1       0.0006
      5 C1         81.7800   68.6600   -8.8900 C.2      1 MOL1      -0.0194
      6 C2         80.0800   68.8500  -10.3800 C.ar     1 MOL1       0.0374
      7 C3         81.2800   69.9400   -8.8100 C.2      1 MOL1      -0.0030
      8 C4         82.9000   68.1200   -8.0900 C.3      1 MOL1       0.0140
      9 C5         81.0800   66.6500  -10.4000 C.ar     1 MOL1      -0.0528
     10 C6         79.1700   68.5000  -11.3800 C.ar     1 MOL1      -0.0402
     11 C7         80.1700   66.2800  -11.4000 C.ar     1 MOL1      -0.0615
     12 C8         79.2300   67.1900  -11.8800 C.ar     1 MOL1      -0.0604
     13 C9         84.2100   68.8600   -8.2700 C.2      1 MOL1       0.0458
     14 H          79.7200   70.8600   -9.8600 H        1 MOL1       0.1522
     15 H1         81.6200   70.6800   -8.1800 H        1 MOL1       0.0793
     16 H2         83.0500   67.1000   -8.3600 H        1 MOL1       0.0379
     17 H3         82.6200   68.2300   -7.0600 H        1 MOL1       0.0379
     18 H4         81.7700   65.9700  -10.0500 H        1 MOL1       0.0630
     19 H5         78.4800   69.1700  -11.7300 H        1 MOL1       0.0643
     20 H6         80.1900   65.3200  -11.7800 H        1 MOL1       0.0623
     21 H7         78.5700   66.9000  -12.6100 H        1 MOL1       0.0623
@<TRIPOS>BOND
     1     1    13    1
     2     2    13    1
     3     3     6    1
     4     3     7    1
     5     3    14    1
     6     4     5    1
     7     4     6   ar
     8     4     9   ar
     9     5     7    2
    10     5     8    1
    11     6    10   ar
    12     7    15    1
    13     8    13    1
    14     8    16    1
    15     8    17    1
    16     9    11   ar
    17     9    18    1
    18    10    12   ar
    19    10    19    1
    20    11    12   ar
    21    11    20    1
    22    12    21    1
