@<TRIPOS>MOLECULE
    MOL
   21    22     0     0     0
SMALL
USER_CHARGES

@<TRIPOS>ATOM
      1 O          84.5100   67.3200   -7.2300 O.co2    1 MOL1      -0.5498
      2 O1         84.2200   68.4200   -9.2000 O.co2    1 MOL1      -0.5498
      3 N          80.4300   69.6800  -10.4100 N.pl3    1 MOL1      -0.3203
      4 C          80.4500   67.5400   -9.8000 C.ar     1 MOL1       0.0006
      5 C1         81.3900   68.2500   -9.0100 C.2      1 MOL1      -0.0194
      6 C2         79.8600   68.4600  -10.6700 C.ar     1 MOL1       0.0374
      7 C3         81.3600   69.5700   -9.4100 C.2      1 MOL1      -0.0030
      8 C4         82.2500   67.6900   -7.9500 C.3      1 MOL1       0.0140
      9 C5         80.0400   66.1900   -9.8700 C.ar     1 MOL1      -0.0528
     10 C6         78.8800   68.1000  -11.6000 C.ar     1 MOL1      -0.0402
     11 C7         79.0600   65.8100  -10.7900 C.ar     1 MOL1      -0.0615
     12 C8         78.4900   66.7600  -11.6500 C.ar     1 MOL1      -0.0604
     13 C9         83.7400   67.8600   -8.2100 C.2      1 MOL1       0.0458
     14 H          80.2000   70.5200  -10.8700 H        1 MOL1       0.1522
     15 H1         81.9300   70.3300   -9.0200 H        1 MOL1       0.0793
     16 H2         82.0500   66.6400   -7.8700 H        1 MOL1       0.0379
     17 H3         82.0300   68.2300   -7.0600 H        1 MOL1       0.0379
     18 H4         80.4600   65.4900   -9.2400 H        1 MOL1       0.0630
     19 H5         78.4600   68.8000  -12.2300 H        1 MOL1       0.0643
     20 H6         78.7500   64.8300  -10.8400 H        1 MOL1       0.0623
     21 H7         77.7700   66.4600  -12.3200 H        1 MOL1       0.0623
@<TRIPOS>BOND
     1     1    13    1
     2     2    13    1
     3     3     6    1
     4     3     7    1
     5     3    14    1
     6     4     5    1
     7     4     6   ar
     8     4     9   ar
     9     5     7    2
    10     5     8    1
    11     6    10   ar
    12     7    15    1
    13     8    13    1
    14     8    16    1
    15     8    17    1
    16     9    11   ar
    17     9    18    1
    18    10    12   ar
    19    10    19    1
    20    11    12   ar
    21    11    20    1
    22    12    21    1
