802
  PyMOL2.4          3D                             0

 22 23  0  0  0  0  0  0  0  0999 V2000
   84.8972   66.0139   -7.9289 O   0  0  0  0  0  0  0  0  0  0  0  0
   84.4542   67.1791   -9.8263 O   0  0  0  0  0  0  0  0  0  0  0  0
   80.9293   69.7838   -9.7136 N   0  0  0  0  0  0  0  0  0  0  0  0
   80.9478   67.5591   -9.8793 C   0  0  0  0  0  0  0  0  0  0  0  0
   81.8895   67.9597   -8.8906 C   0  0  0  0  0  0  0  0  0  0  0  0
   80.3594   68.7224  -10.3800 C   0  0  0  0  0  0  0  0  0  0  0  0
   81.8552   69.3329   -8.8117 C   0  0  0  0  0  0  0  0  0  0  0  0
   82.7535   67.0711   -8.0869 C   0  0  0  0  0  0  0  0  0  0  0  0
   80.5382   66.3145  -10.3978 C   0  0  0  0  0  0  0  0  0  0  0  0
   79.3777   68.7032  -11.3773 C   0  0  0  0  0  0  0  0  0  0  0  0
   79.5575   66.2801  -11.3958 C   0  0  0  0  0  0  0  0  0  0  0  0
   78.9876   67.4573  -11.8764 C   0  0  0  0  0  0  0  0  0  0  0  0
   84.1042   66.7796   -8.7243 C   0  0  0  0  0  0  0  0  0  0  0  0
   82.2526   66.1119   -7.9130 H   0  0  0  0  0  0  0  0  0  0  0  0
   82.9426   67.5299   -7.1087 H   0  0  0  0  0  0  0  0  0  0  0  0
   82.4057   70.0307   -8.1961 H   0  0  0  0  0  0  0  0  0  0  0  0
   80.6972   70.7550   -9.8688 H   0  0  0  0  0  0  0  0  0  0  0  0
   80.9729   65.3872  -10.0355 H   0  0  0  0  0  0  0  0  0  0  0  0
   78.9335   69.6192  -11.7522 H   0  0  0  0  0  0  0  0  0  0  0  0
   79.2379   65.3231  -11.7998 H   0  0  0  0  0  0  0  0  0  0  0  0
   78.2273   67.4074  -12.6519 H   0  0  0  0  0  0  0  0  0  0  0  0
   85.7652   65.8302   -8.3472 H   0  0  0  0  0  0  0  0  0  0  0  0
  1 13  1  0  0  0  0
  1 22  1  0  0  0  0
  2 13  2  0  0  0  0
  3  6  1  0  0  0  0
  3  7  1  0  0  0  0
  3 17  1  0  0  0  0
  4  5  1  0  0  0  0
  4  6  1  0  0  0  0
  4  9  2  0  0  0  0
  5  7  2  0  0  0  0
  5  8  1  0  0  0  0
  6 10  2  0  0  0  0
  7 16  1  0  0  0  0
  8 13  1  0  0  0  0
  8 14  1  0  0  0  0
  8 15  1  0  0  0  0
  9 11  1  0  0  0  0
  9 18  1  0  0  0  0
 10 12  1  0  0  0  0
 10 19  1  0  0  0  0
 11 12  2  0  0  0  0
 11 20  1  0  0  0  0
 12 21  1  0  0  0  0
M  END
>  <PUBCHEM_COMPOUND_CID>
802

>  <PUBCHEM_CONFORMER_RMSD>
0.600000

>  <PUBCHEM_CONFORMER_DIVERSEORDER>
1
4
6
5
2
3


>  <PUBCHEM_MMFF94_PARTIAL_CHARGES>
19
1 -0.65
10 -0.15
11 -0.15
12 -0.15
13 0.66
16 0.15
17 0.27
18 0.15
19 0.15
2 -0.57
20 0.15
21 0.15
22 0.5
3 0.03
5 -0.18
6 -0.15
7 -0.3
8 0.24
9 -0.15


>  <PUBCHEM_EFFECTIVE_ROTOR_COUNT>
2

>  <PUBCHEM_PHARMACOPHORE_FEATURES>
7
1 1 acceptor
1 2 acceptor
1 3 cation
1 3 donor
3 1 2 13 anion
5 3 4 5 6 7 rings
6 4 6 9 10 11 12 rings


>  <PUBCHEM_HEAVY_ATOM_COUNT>
13

>  <PUBCHEM_ATOM_DEF_STEREO_COUNT>
0

>  <PUBCHEM_ATOM_UDEF_STEREO_COUNT>
0

>  <PUBCHEM_BOND_DEF_STEREO_COUNT>
0

>  <PUBCHEM_BOND_UDEF_STEREO_COUNT>
0

>  <PUBCHEM_ISOTOPIC_ATOM_COUNT>
0

>  <PUBCHEM_COMPONENT_COUNT>
1

>  <PUBCHEM_CACTVS_TAUTO_COUNT>
1

>  <PUBCHEM_CONFORMER_ID>
-771751935

>  <PUBCHEM_MMFF94_ENERGY>
18.483700

>  <PUBCHEM_FEATURE_SELFOVERLAP>
35.670000

>  <PUBCHEM_SHAPE_FINGERPRINT>
1 1 18409446977238284134
11031198 65 18409454661108570695
11471102 20 18411136896698268541
12251169 10 11169918285901589449
12654215 9 18335981969830798300
13380535 76 18410574019627584994
14325111 11 18410295856038731705
14911166 2 18341062852065415382
15219456 202 18334022704571488979
15279308 100 18337679727606221516
15775835 57 18412826901904670429
16945 1 18341060644246613674
18186145 218 18413107255673409597
20606313 2 18411137991682690504
21501502 16 18265047110256211198
21524375 3 18334570291184403091
21639500 275 18411971464514887005
21947302 44 18335702715125268051
23402655 69 18343299241462966189
25 1 18410013217067802997
2748010 2 18125171665071472642
3060560 45 18342454807520776903
528886 8 18413108376844347352
63268167 104 18343024375955302632
77492 1 17489309642342492787
81228 2 17614277092887000707


>  <PUBCHEM_SHAPE_MULTIPOLES>
250.81
5.19
1.85
0.85
2.67
0.45
-0.11
-2.27
-0.79
-0.72
0.08
0.4
-0.07
0.26


>  <PUBCHEM_SHAPE_SELFOVERLAP>
546.205000

>  <PUBCHEM_SHAPE_VOLUME>
137.900000

>  <PUBCHEM_COORDINATE_TYPE>
2
5
10


$$$$
